%nprocshared=2
%mem=500MB
%chk=mon1.chk
#p td=(nstates=2) cam-b3lyp geom=connectivity svp density(transition=1) Iop(9/40=5) nosymm

Title

0 1
 C                 -2.00000000    5.14211100    0.14667307
 C                 -2.00000000    4.61911100    1.40753307
 H                 -2.00000000    5.22791000    2.31174407
 C                 -2.00000000    3.19640100    1.40782707
 H                 -2.00000000    2.58953200    2.31400607
 C                 -2.00000000    2.65514200    0.14442407
 S                 -2.00000000    3.91163100   -1.05410593
 C                 -2.00000000    1.25333000   -0.24346093
 C                 -2.00000000    0.70896700   -1.50460993
 H                 -2.00000000    1.31295000   -2.41252793
 C                 -2.00000000   -0.70896700   -1.50460993
 H                 -2.00000000   -1.31295000   -2.41252793
 C                 -2.00000000   -1.25333000   -0.24346093
 S                 -2.00000000    0.00000000    0.95819207
 C                 -2.00000000   -2.65514200    0.14442407
 C                 -2.00000000   -3.19640100    1.40782707
 H                 -2.00000000   -2.58953200    2.31400607
 C                 -2.00000000   -4.61911100    1.40753307
 H                 -2.00000000   -5.22791000    2.31174407
 C                 -2.00000000   -5.14211100    0.14667307
 H                 -2.00000000   -6.19049700   -0.14577993
 S                 -2.00000000   -3.91163100   -1.05410593
 H                 -2.00000000    6.19049700   -0.14577993

 1 2 2.0 7 1.0 23 1.0
 2 3 1.0 4 1.5
 3
 4 5 1.0 6 2.0
 5
 6 7 1.0 8 1.0
 7
 8 9 2.0 14 1.0
 9 10 1.0 11 1.5
 10
 11 12 1.0 13 2.0
 12
 13 14 1.0 15 1.0
 14
 15 16 2.0 22 1.0
 16 17 1.0 18 1.5
 17
 18 19 1.0 20 2.0
 19
 20 21 1.0 22 1.0
 21
 22
 23

