%nprocshared=12
%mem=2500MW
%chk=temp.chk
#p td=(nstates=1) cam-b3lyp/cc-pvtz nosymm density=transition=1 iop(9/40=5)

bodipy_monomer_camccpvtz

0 1
 C                  2.54995478   -0.00000000    1.58639213
 C                  1.21407937   -0.00000000    1.10985364
 C                  3.37799026   -0.00000000    0.47440114
 H                  4.45642274   -0.00000000    0.45625796
 C                  2.53701706   -0.00000000   -0.65836963
 H                  2.80626133   -0.00000000   -1.70417753
 N                  1.25176205   -0.00000000   -0.28282472
 C                  0.00000000    0.00000000    1.78506054
 H                  0.00000000    0.00000000    2.86881774
 C                 -3.37799026   -0.00000000    0.47440114
 H                 -4.45642274   -0.00000000    0.45625796
 C                 -2.53701706   -0.00000000   -0.65836963
 H                 -2.80626133   -0.00000000   -1.70417753
 C                 -2.54995478   -0.00000000    1.58639213
 H                 -2.84248619    0.00000000    2.62506781
 C                 -1.21407937   -0.00000000    1.10985364
 N                 -1.25176205   -0.00000000   -0.28282472
 B                  0.00000000   -0.00000000   -1.22898084
 F                  0.00000000    1.14644784   -2.01919223
 F                  0.00000000   -1.14644784   -2.01919223
 H                  2.84248619    0.00000000    2.62506781

